LTspice 24.0.12 for Windows
Circuit: * C:\Users\rajhb\OneDrive\Desktop\Old files\Exp3_NOT.asc
Start Time: Fri Oct 18 02:52:08 2024
solver = Normal
Maximum thread count: 12
tnom = 27
temp = 27
method = modified trap
WARNING: Node N004 is floating.

WARNING: Less than two connections to node n004.  This node is used by m2.
Warning: toxe, toxp and dtox all given and toxe != toxp + dtox; dtox ignored.
Total elapsed time: 0.104 seconds.

