LTspice 24.0.12 for Windows
Circuit: * C:\Users\rajhb\OneDrive\Desktop\Old files\Exp_4_NOR.asc
Start Time: Fri Oct 18 12:09:42 2024
solver = Normal
Maximum thread count: 12
tnom = 27
temp = 27
method = modified trap
Direct Newton iteration for .op point succeeded.
Total elapsed time: 0.087 seconds.

